# generated using pymatgen
data_V
_symmetry_space_group_name_H-M   'P 1'
_cell_length_a   10.98800000
_cell_length_b   10.98800000
_cell_length_c   10.00000000
_cell_angle_alpha   90.00000000
_cell_angle_beta   90.00000000
_cell_angle_gamma   120.00000000
_symmetry_Int_Tables_number   1
_chemical_formula_structural   V
_chemical_formula_sum   V16
_cell_volume   1045.60567859
_cell_formula_units_Z   16
loop_
 _symmetry_equiv_pos_site_id
 _symmetry_equiv_pos_as_xyz
  1  'x, y, z'
loop_
 _atom_site_type_symbol
 _atom_site_label
 _atom_site_symmetry_multiplicity
 _atom_site_fract_x
 _atom_site_fract_y
 _atom_site_fract_z
 _atom_site_occupancy
  V  V0  1  0.25000000  0.00000000  0.00000000  1
  V  V1  1  0.25000000  0.25000000  0.00000000  1
  V  V2  1  0.00000000  0.25000000  0.00000000  1
  V  V3  1  0.00000000  0.00000000  0.50000000  1
  V  V4  1  0.25000000  0.50000000  0.00000000  1
  V  V5  1  0.25000000  0.75000000  0.00000000  1
  V  V6  1  0.00000000  0.75000000  0.00000000  1
  V  V7  1  0.00000000  0.50000000  0.50000000  1
  V  V8  1  0.75000000  0.00000000  0.00000000  1
  V  V9  1  0.75000000  0.25000000  0.00000000  1
  V  V10  1  0.50000000  0.25000000  0.00000000  1
  V  V11  1  0.50000000  0.00000000  0.50000000  1
  V  V12  1  0.75000000  0.50000000  0.00000000  1
  V  V13  1  0.75000000  0.75000000  0.00000000  1
  V  V14  1  0.50000000  0.75000000  0.00000000  1
  V  V15  1  0.50000000  0.50000000  0.50000000  1
